
**** 11/14/21 22:02:34 ********* PSpice 9.2 (Mar 2000) ******** ID# 0 ********

 * C:\Users\Tanjim\Desktop\Lab3\Submission\20101065_Tanjim_Lab3File2.sch


 ****     CIRCUIT DESCRIPTION


******************************************************************************




* Schematics Version 9.2
* Sun Nov 14 22:02:30 2021



** Analysis setup **
.OP 


* From [PSPICE NETLIST] section of C:\Program Files\Orcad\PSpice\PSpice.ini:
.lib "nom.lib"

.INC "20101065_Tanjim_Lab3File2.net"



**** INCLUDING 20101065_Tanjim_Lab3File2.net ****
* Schematics Netlist *



V_V1         $N_0001 0 10.5V
R_R1         0 $N_0001  3.0k  
R_R2         0 $N_0001  8.5k  
R_R3         0 $N_0001  2.5k  

**** RESUMING 20101065_Tanjim_Lab3File2.cir ****
.PROBE V(*) I(*) W(*) D(*) NOISE(*) 


.END

**** 11/14/21 22:02:34 ********* PSpice 9.2 (Mar 2000) ******** ID# 0 ********

 * C:\Users\Tanjim\Desktop\Lab3\Submission\20101065_Tanjim_Lab3File2.sch


 ****     SMALL SIGNAL BIAS SOLUTION       TEMPERATURE =   27.000 DEG C


******************************************************************************



 NODE   VOLTAGE     NODE   VOLTAGE     NODE   VOLTAGE     NODE   VOLTAGE


($N_0001)   10.5000                   




    VOLTAGE SOURCE CURRENTS
    NAME         CURRENT

    V_V1        -8.935E-03

    TOTAL POWER DISSIPATION   9.38E-02  WATTS


**** 11/14/21 22:02:34 ********* PSpice 9.2 (Mar 2000) ******** ID# 0 ********

 * C:\Users\Tanjim\Desktop\Lab3\Submission\20101065_Tanjim_Lab3File2.sch


 ****     OPERATING POINT INFORMATION      TEMPERATURE =   27.000 DEG C


******************************************************************************





          JOB CONCLUDED

          TOTAL JOB TIME             .02
